Version 4
SHEET 1 880 680
WIRE -592 -416 -688 -416
WIRE -544 -416 -592 -416
WIRE -416 -416 -544 -416
WIRE -288 -416 -416 -416
WIRE -592 -400 -592 -416
WIRE -544 -368 -544 -416
WIRE -512 -368 -544 -368
WIRE -288 -368 -288 -416
WIRE -288 -368 -320 -368
WIRE -688 -336 -688 -416
WIRE -592 -304 -592 -320
WIRE -576 -304 -592 -304
WIRE -592 -272 -592 -304
WIRE -512 -272 -592 -272
WIRE -288 -272 -320 -272
WIRE -144 -272 -288 -272
WIRE -96 -272 -144 -272
WIRE 32 -272 -16 -272
WIRE 128 -272 32 -272
WIRE 224 -272 128 -272
WIRE 256 -272 224 -272
WIRE -592 -256 -592 -272
WIRE 224 -256 224 -272
WIRE -144 -240 -144 -272
WIRE 32 -240 32 -272
WIRE 128 -240 128 -272
WIRE -736 -176 -832 -176
WIRE -688 -176 -688 -256
WIRE -688 -176 -736 -176
WIRE -640 -176 -688 -176
WIRE -592 -176 -592 -192
WIRE -592 -176 -640 -176
WIRE -544 -176 -592 -176
WIRE -512 -176 -544 -176
WIRE -288 -176 -320 -176
WIRE -832 -160 -832 -176
WIRE -736 -160 -736 -176
WIRE -640 -160 -640 -176
WIRE -288 -160 -288 -176
WIRE -144 -144 -144 -176
WIRE 32 -144 32 -176
WIRE 128 -144 128 -176
WIRE -512 -80 -544 -80
WIRE -288 -80 -288 -96
WIRE -288 -80 -320 -80
WIRE -80 -80 -96 -80
WIRE 32 -80 0 -80
WIRE 48 -80 32 -80
WIRE 128 -80 112 -80
WIRE 224 -80 224 -176
WIRE 224 -80 208 -80
WIRE -832 -64 -832 -80
WIRE -736 -64 -736 -96
WIRE -640 -64 -640 -96
WIRE -288 -64 -288 -80
WIRE -112 -16 -144 -16
WIRE -80 -16 -112 -16
WIRE 128 -16 96 -16
WIRE 224 -16 224 -80
WIRE 224 -16 128 -16
WIRE -640 0 -656 0
WIRE -544 0 -544 -80
WIRE -544 0 -560 0
WIRE -528 0 -544 0
WIRE -432 0 -448 0
WIRE -144 0 -144 -16
WIRE -80 0 -80 -16
WIRE 32 0 32 -80
WIRE 224 0 224 -16
WIRE 96 32 96 -16
WIRE 96 32 64 32
WIRE -144 96 -144 80
WIRE -80 96 -80 80
WIRE 32 96 32 64
WIRE 224 96 224 80
FLAG -832 -64 0
FLAG -736 -64 0
FLAG -288 -64 0
FLAG -144 -144 0
FLAG 256 -272 3v3
IOPIN 256 -272 Out
FLAG -656 0 0
FLAG -288 -272 SwE
FLAG -544 -176 Vcc
FLAG -544 -80 Inv
FLAG -80 96 0
FLAG -416 -416 SwC
FLAG -640 -64 0
FLAG 128 -144 0
FLAG 32 -144 0
FLAG -96 -80 Ipk
IOPIN -96 -80 In
FLAG 224 96 0
FLAG 32 96 0
FLAG -576 -304 Ipk
IOPIN -576 -304 Out
FLAG -112 -16 3v3
FLAG -144 96 0
FLAG -432 0 3v3
IOPIN -432 0 In
FLAG 32 -80 err
FLAG 128 -16 fb
FLAG -288 -176 Osc
SYMBOL voltage -832 -176 R0
WINDOW 123 0 0 Left 2
WINDOW 39 -32 -16 Left 2
WINDOW 0 32 32 Left 2
WINDOW 3 32 80 Left 2
SYMATTR SpiceLine Rser=1
SYMATTR InstName V1
SYMATTR Value 15
SYMBOL polcap -752 -160 R0
WINDOW 123 24 80 Left 2
SYMATTR SpiceLine V=35 Irms=220m Rser=0.4 Lser=0 mfg="United-Chemicon" pn="EMVH350ADA101MHA0G" type="Al electrolytic"
SYMATTR InstName C1
SYMATTR Value 100µ
SYMBOL cap -656 -160 R0
SYMATTR InstName C2
SYMATTR Value 0µ1
SYMBOL res -672 -240 R180
WINDOW 0 36 76 Left 2
WINDOW 3 36 40 Left 2
SYMATTR InstName R1
SYMATTR Value 0.33
SYMBOL res -576 -304 R180
WINDOW 0 36 76 Left 2
WINDOW 3 36 40 Left 2
SYMATTR InstName R2
SYMATTR Value 100
SYMBOL res -544 -16 R90
WINDOW 0 0 56 VBottom 2
WINDOW 3 32 56 VTop 2
SYMATTR InstName R3
SYMATTR Value 10k0
SYMBOL res -432 -16 R90
WINDOW 0 0 56 VBottom 2
WINDOW 3 32 56 VTop 2
SYMATTR InstName R4
SYMATTR Value 17k8
SYMBOL MC33063A -416 -224 M0
WINDOW 0 0 176 Center 2
SYMATTR InstName X1
SYMBOL cap -304 -160 R0
SYMATTR InstName C3
SYMATTR Value 330p
SYMBOL schottky -160 -176 M180
WINDOW 0 24 64 Left 2
WINDOW 3 25 0 Left 2
SYMATTR InstName D1
SYMATTR Value MBRS130L
SYMATTR Description Diode
SYMATTR Type diode
SYMBOL ind -112 -256 R270
WINDOW 0 32 56 VTop 2
WINDOW 3 5 56 VBottom 2
WINDOW 39 56 56 VTop 2
SYMATTR InstName L1
SYMATTR Value 330µ
SYMATTR SpiceLine Rser=1.1 Rpar=10k
SYMBOL polcap 16 -240 R0
WINDOW 123 24 80 Left 2
SYMATTR SpiceLine V=16 Irms=2.67 Rser=35m Lser=20n
SYMATTR InstName C4
SYMATTR Value 100µ
SYMBOL cap 112 -240 R0
WINDOW 123 24 80 Left 2
SYMATTR InstName C5
SYMATTR Value 4µ7
SYMBOL res 16 -96 R90
WINDOW 0 0 56 VBottom 2
WINDOW 3 32 56 VTop 2
SYMATTR InstName R5
SYMATTR Value 1k
SYMBOL res 208 -272 R0
SYMATTR InstName R7
SYMATTR Value 3k32
SYMBOL res 208 -16 R0
SYMATTR InstName R8
SYMATTR Value 10k0
SYMBOL res -96 -16 R0
SYMATTR InstName R9
SYMATTR Value 11
SYMBOL current -144 0 M0
WINDOW 123 0 0 Left 2
WINDOW 39 0 0 Left 2
SYMATTR Value PULSE(0 300m 2m5 0u1 0u1 2m)
SYMATTR InstName I1
SYMBOL cap 112 -96 R90
WINDOW 0 0 32 VBottom 2
WINDOW 3 32 32 VTop 2
WINDOW 123 56 32 VTop 2
SYMATTR InstName C7
SYMATTR Value 2n2
SYMBOL cap -576 -256 M0
SYMATTR InstName C8
SYMATTR Value 330p
SYMBOL res 224 -96 R90
WINDOW 0 0 56 VBottom 2
WINDOW 3 32 56 VTop 2
SYMATTR InstName R6
SYMATTR Value 100k
SYMBOL TL431AS 32 32 M0
WINDOW 0 16 32 Left 2
WINDOW 3 -16 32 Right 2
SYMATTR InstName X2
TEXT -848 48 Left 2 !.tran 0 5m 1n
TEXT -344 -16 Left 2 ;Overvoltage\nSD (3.5V)
TEXT 48 -416 Center 3 ;Input:   15V  1.49W 3.07W\nOutput: 3.3V 1.01W 2.01W
