Version 4
SHEET 1 880 680
WIRE 64 128 -16 128
WIRE -16 144 -16 128
WIRE 64 160 64 128
WIRE 96 160 64 160
WIRE 272 160 192 160
WIRE 320 160 272 160
WIRE 192 176 192 160
WIRE 192 176 160 176
WIRE -16 192 -16 176
WIRE 96 192 32 192
WIRE 320 224 320 160
WIRE 128 240 128 208
WIRE 32 272 32 192
WIRE 80 272 32 272
WIRE 176 272 80 272
WIRE 272 272 272 160
WIRE 272 272 256 272
WIRE 80 288 80 272
FLAG 128 112 0
FLAG 128 240 0
FLAG -16 192 0
FLAG 80 400 0
FLAG 320 288 0
SYMBOL MiniSyms4\\voltage- 128 128 R180
WINDOW 0 11 11 Left 2
WINDOW 3 7 -11 Left 2
WINDOW 123 0 0 Left 2
WINDOW 39 0 0 Left 2
SYMATTR InstName V1
SYMATTR Value 5
SYMBOL MiniSyms4\\voltage- -16 160 R0
WINDOW 3 -352 16 Left 2
WINDOW 123 0 0 Left 2
WINDOW 39 0 0 Left 2
SYMATTR InstName V2
SYMATTR Value PULSE(0 100m 0 0 0 50m 100m)
SYMBOL res 64 272 R0
SYMATTR InstName R1
SYMATTR Value 100k
SYMBOL res 272 256 R90
WINDOW 0 0 56 VBottom 2
WINDOW 3 32 56 VTop 2
SYMATTR InstName R2
SYMATTR Value 100k
SYMBOL MiniSyms4\\voltage- 80 384 R0
WINDOW 123 0 0 Left 2
WINDOW 39 0 0 Left 2
SYMATTR InstName V3
SYMATTR Value 3
SYMBOL cap 304 224 R0
SYMATTR InstName C1
SYMATTR Value 1µ
SYMATTR SpiceLine V=25
TEXT -370 424 Left 2 !.tran 5
TEXT -440 16 Left 2 !.lib C:\\Users\\Damian\\Documents\\LTspiceXVII\\lib\\sub\\MCP6001.sub
