*SRC=S1B;DI_S1B;Diodes;Si;  100V  1.00A  3.00us   Diodes Inc. Rectifier
.MODEL DI_S1B D  ( IS=7.31e-018 RS=42.0m BV=100 IBV=5.00u
+ CJO=42.4p  M=0.333 N=0.775 TT=4.32u )