Version 4
SHEET 1 900 744
WIRE -128 96 -272 96
WIRE -96 96 -128 96
WIRE 80 96 -96 96
WIRE 400 96 336 96
WIRE 480 96 400 96
WIRE 656 96 480 96
WIRE 688 96 656 96
WIRE 480 128 480 96
WIRE 688 144 688 96
WIRE -272 192 -272 96
WIRE -96 192 -96 96
WIRE 400 192 400 96
WIRE 480 224 480 192
WIRE 208 288 208 192
WIRE 688 288 688 224
WIRE -272 304 -272 272
WIRE 208 352 208 288
WIRE 400 352 400 272
WIRE 400 352 208 352
WIRE 208 464 208 352
WIRE -96 656 -96 256
WIRE 208 656 208 544
WIRE 208 656 -96 656
WIRE 384 656 208 656
WIRE 688 656 688 352
WIRE 688 656 384 656
WIRE 384 704 384 656
FLAG 480 224 0
FLAG 384 704 0
FLAG -272 304 0
FLAG 656 96 Vout
FLAG -128 96 Vin
FLAG 208 288 Vadj
SYMBOL PowerProducts\\LT317A 208 96 R0
SYMATTR InstName U1
SYMBOL cap -112 192 R0
SYMATTR InstName C1
SYMATTR Value 1µ
SYMATTR SpiceLine V=25
SYMBOL cap 464 128 R0
SYMATTR InstName C2
SYMATTR Value 1µF
SYMATTR SpiceLine V=25
SYMBOL res 672 128 R0
SYMATTR InstName R1
SYMATTR Value 1k
SYMATTR SpiceLine tol=5 pwr=0.25
SYMBOL res 384 176 R0
SYMATTR InstName R2
SYMATTR Value 100
SYMBOL LED 672 288 R0
SYMATTR InstName D1
SYMATTR Value STW8B12C
SYMBOL voltage -272 176 R0
WINDOW 123 0 0 Left 2
WINDOW 39 0 0 Left 2
SYMATTR InstName V1
SYMATTR Value PULSE(0 15 0 6 0)
SYMBOL res 192 448 R0
SYMATTR InstName R3
SYMATTR Value {REG}
TEXT -648 160 Left 2 !.step param REG 100 1k 100
TEXT -648 208 Left 2 !.tran 10
